Test system/caseSPPS_B.m
function mpc = caseSPPS_B
%It is the operating condition that the system baseline.
%% MATPOWER Case Format : Version 1
mpc.version = '1';

%%-----  Power Flow Data  -----%%
%% system MVA base
mpc.baseMVA = 1000;

%% bus data
mpc.bus = [
101	1	2582.32	556.26	0	0	1	1.0445	-10.6861	500	1	1.05	0.95
102	1	996.04	224.72	0	0	1	1.0463	-8.9341	500	1	1.05	0.95
103	1	1091.79	232.4	0	0	1	1.0472	-8.2589	500	1	1.05	0.95
104	1	1254.27	314.71	0	0	1	1.0447	-10.3149	500	1	1.05	0.95
105	1	516.46	122.84	0	0	1	1.0442	-11.3254	500	1	1.05	0.95
106	1	442.68	93.63	0	0	1	1.0388	-14.0303	220	1	1.05	0.95
107	1	221.34	56.17	0	0	1	1.0397	-13.6026	220	1	1.05	0.95
108	1	147.56	37.13	0	0	1	1.042	-12.2772	220	1	1.05	0.95
109	1	221.34	48.67	0	0	1	1.0422	-12.1444	220	1	1.05	0.95
201	1	219.09	46.98	0	0	1	1.0458	-9.3	500	1	1.05	0.95
202	1	397.1	81.19	0	0	1	1.041	-11.2677	220	1	1.05	0.95
203	1	314.94	65.69	0	0	1	1.0427	-10.346	220	1	1.05	0.95
204	1	438.18	115.54	0	0	1	1.0441	-9.247	220	1	1.05	0.95
301	1	1067.67	238.58	0	0	1	1.0485	-6.8443	500	1	1.05	0.95
302	1	305.05	61.49	0	0	1	1.05	-5.795	500	1	1.05	0.95
303	1	435.78	94.11	0	0	1	1.0423	-10.1519	220	1	1.05	0.95
304	1	370.42	89.25	0	0	1	1.0432	-9.6581	220	1	1.05	0.95
401	1	909.59	223.3	0	0	1	1.0464	-7.9075	500	1	1.05	0.95
402	1	909.59	224.8	0	0	1	1.0481	-6.8401	500	1	1.05	0.95
403	1	909.59	190.6	0	0	1	1.0479	-6.7599	500	1	1.05	0.95
404	1	861.71	224.47	0	0	1	1.0478	-6.6233	500	1	1.05	0.95
405	1	239.36	63.11	0	0	1	1.0462	-7.4483	220	1	1.05	0.95
406	1	95.75	24.28	0	0	1	1.0472	-7.0953	220	1	1.05	0.95
407	1	382.98	88.55	0	0	1	1.045	-8.0498	220	1	1.05	0.95
408	1	287.24	70.2	0	0	1	1.0462	-6.6972	220	1	1.05	0.95
501	1	802.15	176	0	0	1	1.05	-1.8862	500	1	1.05	0.95
502	1	683.32	185.69	0	0	1	1.0498	-1.7291	500	1	1.05	0.95
601	1	1824.8	432.5	0	0	1	1.0499	-0.9387	500	1	1.05	0.95
602	1	456.2	114	0	0	1	1.0437	-6.4832	220	1	1.05	0.95
701	1	658.25	176.62	0	0	1	1.0465	-8.3216	500	1	1.05	0.95
702	1	1765.31	462.8	0	0	1	1.0461	-8.479	500	1	1.05	0.95
703	1	209.44	48.84	0	0	1	1.0472	-7.8783	500	1	1.05	0.95
704	1	0	0	0	0	1	1.0471	-8.0227	800	1	1.05	0.95
705	1	269.28	72.84	0	0	1	1.0473	-8.1581	220	1	1.05	0.95
706	1	89.76	21.05	0	0	1	1.0473	-8.3569	220	1	1.05	0.95
801	1	1188.66	245.88	0	0	1	1.0468	-6.6671	500	1	1.05	0.95
802	1	360.84	89.09	0	0	1	1.0486	-5.1896	500	1	1.05	0.95
803	1	212.26	52.49	0	0	1	1.0442	-7.6986	220	1	1.05	0.95
804	1	360.84	90.61	0	0	1	1.0456	-6.8868	220	1	1.05	0.95
901	1	1293.62	267.66	0	0	1	1.0436	-8.5593	500	1	1.05	0.95
902	1	332.65	82.38	0	0	1	1.04	-10.1366	220	1	1.05	0.95
903	1	110.88	24	0	0	1	1.0483	-6.2311	220	1	1.05	0.95
904	1	110.88	25.81	0	0	1	1.0483	-4.8225	220	1	1.05	0.95
1001	1	1162.29	301.99	0	0	1	1.05	-1.7362	500	1	1.05	0.95
1002	1	143.65	37.6	0	0	1	1.0493	-3.2735	220	1	1.05	0.95
1101	1	359.33	75.64	0	0	1	1.05	-4.8541	500	1	1.05	0.95
1102	1	628.82	159.83	0	0	1	1.0459	-9.0325	500	1	1.05	0.95
1103	1	718.66	177.43	0	0	1	1.0447	-9.8301	500	1	1.05	0.95
1104	1	67.37	17.22	0	0	1	1.05	-7.2579	220	1	1.05	0.95
1105	1	157.21	39.93	0	0	1	1.0442	-10.0234	220	1	1.05	0.95
1106	1	179.66	36.49	0	0	1	1.0445	-9.9292	220	1	1.05	0.95
1107	1	67.37	15.37	0	0	1	1.0442	-10.0216	220	1	1.05	0.95
1108	1	67.37	18.69	0	0	1	1.0446	-9.853	220	1	1.05	0.95
1201	3	1826.91	498.66	0	0	1	1.05	0	500	1	1.05	0.95
1301	1	945.88	254.55	0	0	1	1.048	-6.0793	500	1	1.05	0.95
1302	1	499.71	104.07	0	0	1	1.05	-3.1914	220	1	1.05	0.95
1303	1	339.09	93.19	0	0	1	1.0452	-7.2726	220	1	1.05	0.95
1401	1	829.19	175.07	0	0	1	1.0461	-8.3095	500	1	1.05	0.95
1402	1	462.43	99.07	0	0	1	1.0482	-6.6395	500	1	1.05	0.95
1403	1	95.68	23.96	0	0	1	1.0425	-11.73	220	1	1.05	0.95
1404	1	303.05	60.83	0	0	1	1.05	-4.3322	220	1	1.05	0.95
1501	2	0	0	0	0	1	1.05	-5.0183	500	1	1.05	0.95
1502	2	0	0	0	0	1	1.05	-5.5856	500	1	1.05	0.95
1503	2	0	0	0	0	1	1.05	-0.5836	500	1	1.05	0.95
1504	2	0	0	0	0	1	1.05	-1.5127	500	1	1.05	0.95
1505	2	0	0	0	0	1	1.05	0.4256	500	1	1.05	0.95
];

%% generator data
mpc.gen = [
101	140	65.5	175	-35	1.0445	500	1	350	140	0	0	0	0	0	0	0	0	0	0	0
101	140	65.5	175	-35	1.0445	500	1	350	140	0	0	0	0	0	0	0	0	0	0	0
101	135	26.08	67.5	-13.5	1.0445	500	1	135	70	0	0	0	0	0	0	0	0	0	0	0
101	135	26.08	67.5	-13.5	1.0445	500	1	135	70	0	0	0	0	0	0	0	0	0	0	0
101	150	28.92	75	-15	1.0445	500	1	150	75	0	0	0	0	0	0	0	0	0	0	0
101	150	28.92	75	-15	1.0445	500	1	150	75	0	0	0	0	0	0	0	0	0	0	0
1201	277.86	62.64	330	-66	1.05	500	1	660	198	0	0	0	0	0	0	0	0	0	0	0
1201	277.86	62.64	330	-66	1.05	500	1	660	198	0	0	0	0	0	0	0	0	0	0	0
1201	134	45.49	160	-32	1.05	500	1	320	134	0	0	0	0	0	0	0	0	0	0	0
1201	134	45.49	160	-32	1.05	500	1	320	134	0	0	0	0	0	0	0	0	0	0	0
1201	70	12.9	35	-7	1.05	500	1	70	35	0	0	0	0	0	0	0	0	0	0	0
1201	70	12.9	35	-7	1.05	500	1	70	35	0	0	0	0	0	0	0	0	0	0	0
1201	928.88	59.55	500	-100	1.05	500	1	1000	350	0	0	0	0	0	0	0	0	0	0	0
1201	928.88	59.55	500	-100	1.05	500	1	1000	350	0	0	0	0	0	0	0	0	0	0	0
104	140	52.87	175	-35	1.0447	500	1	350	140	0	0	0	0	0	0	0	0	0	0	0
104	140	52.87	175	-35	1.0447	500	1	350	140	0	0	0	0	0	0	0	0	0	0	0
1504	240	-19.97	330	-66	1.05	500	1	660	240	0	0	0	0	0	0	0	0	0	0	0
1504	240	-19.97	330	-66	1.05	500	1	660	240	0	0	0	0	0	0	0	0	0	0	0
1504	311.42	-17.6	315	-63	1.05	500	1	630	235	0	0	0	0	0	0	0	0	0	0	0
1504	311.42	-17.6	315	-63	1.05	500	1	630	235	0	0	0	0	0	0	0	0	0	0	0
103	140	75.99	175	-35	1.0472	500	1	350	140	0	0	0	0	0	0	0	0	0	0	0
103	140	75.99	175	-35	1.0472	500	1	350	140	0	0	0	0	0	0	0	0	0	0	0
103	140	75.99	175	-35	1.0472	500	1	350	140	0	0	0	0	0	0	0	0	0	0	0
703	140	37.55	175	-35	1.0472	500	1	350	140	0	0	0	0	0	0	0	0	0	0	0
703	140	37.55	175	-35	1.0472	500	1	350	140	0	0	0	0	0	0	0	0	0	0	0
304	50	10.78	25	-5	1.0432	500	1	50	35	0	0	0	0	0	0	0	0	0	0	0
304	50	10.78	25	-5	1.0432	500	1	50	35	0	0	0	0	0	0	0	0	0	0	0
304	50	10.78	25	-5	1.0432	500	1	50	35	0	0	0	0	0	0	0	0	0	0	0
1001	140	42.94	175	-35	1.05	500	1	350	140	0	0	0	0	0	0	0	0	0	0	0
1001	140	42.94	175	-35	1.05	500	1	350	140	0	0	0	0	0	0	0	0	0	0	0
1301	408.3	74.16	300	-60	1.048	500	1	600	260.5	0	0	0	0	0	0	0	0	0	0	0
1301	408.3	74.16	300	-60	1.048	500	1	600	278	0	0	0	0	0	0	0	0	0	0	0
302	181.01	23.02	165	-33	1.05	500	1	330	115	0	0	0	0	0	0	0	0	0	0	0
302	402.58	5.67	335	-67	1.05	500	1	670	210	0	0	0	0	0	0	0	0	0	0	0
302	181.01	23.02	165	-33	1.05	500	1	330	115	0	0	0	0	0	0	0	0	0	0	0
1001	1034.19	34.9	522.5	-104.5	1.05	500	1	1045	418	0	0	0	0	0	0	0	0	0	0	0
1001	1034.19	34.9	522.5	-104.5	1.05	500	1	1045	418	0	0	0	0	0	0	0	0	0	0	0
601	123.05	29.6	75	-15	1.0499	500	1	150	75	0	0	0	0	0	0	0	0	0	0	0
601	123.05	29.6	75	-15	1.0499	500	1	150	75	0	0	0	0	0	0	0	0	0	0	0
104	144	53.91	180	-36	1.0447	500	1	360	144	0	0	0	0	0	0	0	0	0	0	0
104	155	27.4	77.5	-15.5	1.0447	500	1	155	75	0	0	0	0	0	0	0	0	0	0	0
104	155	27.4	77.5	-15.5	1.0447	500	1	155	75	0	0	0	0	0	0	0	0	0	0	0
104	155	27.4	77.5	-15.5	1.0447	500	1	155	75	0	0	0	0	0	0	0	0	0	0	0
301	193.93	47.5	150	-30	1.0485	500	1	300	150	0	0	0	0	0	0	0	0	0	0	0
301	193.93	47.5	150	-30	1.0485	500	1	300	150	0	0	0	0	0	0	0	0	0	0	0
301	193.93	54.25	180	-36	1.0485	500	1	360	144	0	0	0	0	0	0	0	0	0	0	0
301	193.93	54.25	180	-36	1.0485	500	1	360	144	0	0	0	0	0	0	0	0	0	0	0
303	40	7.86	20	-4	1.0423	500	1	40	28	0	0	0	0	0	0	0	0	0	0	0
408	50	9.02	25	-5	1.0462	500	1	50	35	0	0	0	0	0	0	0	0	0	0	0
403	424.93	100.31	330	-66	1.0479	500	1	660	290	0	0	0	0	0	0	0	0	0	0	0
403	424.93	100.31	330	-66	1.0479	500	1	660	290	0	0	0	0	0	0	0	0	0	0	0
103	30	5.98	15	-3	1.0472	500	1	30	15	0	0	0	0	0	0	0	0	0	0	0
103	30	5.98	15	-3	1.0472	500	1	30	15	0	0	0	0	0	0	0	0	0	0	0
103	30	5.98	15	-3	1.0472	500	1	30	15	0	0	0	0	0	0	0	0	0	0	0
1505	893.85	-66.69	525	-105	1.05	500	1	1050	350	0	0	0	0	0	0	0	0	0	0	0
1505	893.85	-66.69	525	-105	1.05	500	1	1050	350	0	0	0	0	0	0	0	0	0	0	0
1505	268.78	-29.2	315	-63	1.05	500	1	630	240	0	0	0	0	0	0	0	0	0	0	0
1505	268.78	-29.2	315	-63	1.05	500	1	630	240	0	0	0	0	0	0	0	0	0	0	0
601	198	137.2	330	-66	1.0499	500	1	660	198	0	0	0	0	0	0	0	0	0	0	0
601	198	137.2	330	-66	1.0499	500	1	660	198	0	0	0	0	0	0	0	0	0	0	0
101	150	28.92	75	-15	1.0445	500	1	150	75	0	0	0	0	0	0	0	0	0	0	0
101	150	28.92	75	-15	1.0445	500	1	150	75	0	0	0	0	0	0	0	0	0	0	0
901	80	15.55	40	-8	1.0436	500	1	80	56	0	0	0	0	0	0	0	0	0	0	0
101	135	26.08	67.5	-13.5	1.0445	500	1	135	70	0	0	0	0	0	0	0	0	0	0	0
101	135	26.08	67.5	-13.5	1.0445	500	1	135	70	0	0	0	0	0	0	0	0	0	0	0
1102	219.25	34.91	150	-30	1.0459	500	1	300	135	0	0	0	0	0	0	0	0	0	0	0
1102	219.25	34.91	150	-30	1.0459	500	1	300	135	0	0	0	0	0	0	0	0	0	0	0
804	30	5.83	15	-3	1.0456	500	1	30	15	0	0	0	0	0	0	0	0	0	0	0
804	30	5.83	15	-3	1.0456	500	1	30	15	0	0	0	0	0	0	0	0	0	0	0
802	32.8	6.61	16.4	-3.28	1.0486	500	1	32.8	22	0	0	0	0	0	0	0	0	0	0	0
802	30	6.04	15	-3	1.0486	500	1	30	21	0	0	0	0	0	0	0	0	0	0	0
601	52.5	14.74	37.5	-7.5	1.0499	500	1	75	52.5	0	0	0	0	0	0	0	0	0	0	0
601	52.5	14.74	37.5	-7.5	1.0499	500	1	75	52.5	0	0	0	0	0	0	0	0	0	0	0
901	70	19.37	50	-10	1.0436	500	1	100	70	0	0	0	0	0	0	0	0	0	0	0
901	56	15.55	40	-8	1.0436	500	1	80	56	0	0	0	0	0	0	0	0	0	0	0
501	77	21.98	55	-11	1.05	500	1	110	77	0	0	0	0	0	0	0	0	0	0	0
501	77	21.98	55	-11	1.05	500	1	110	77	0	0	0	0	0	0	0	0	0	0	0
501	101.5	29.21	72.5	-14.5	1.05	500	1	145	101.5	0	0	0	0	0	0	0	0	0	0	0
501	101.5	29.21	72.5	-14.5	1.05	500	1	145	101.5	0	0	0	0	0	0	0	0	0	0	0
501	101.5	29.21	72.5	-14.5	1.05	500	1	145	101.5	0	0	0	0	0	0	0	0	0	0	0
501	94.5	27.13	67.5	-13.5	1.05	500	1	135	94.5	0	0	0	0	0	0	0	0	0	0	0
502	94.5	32.72	67.5	-13.5	1.0498	500	1	135	94.5	0	0	0	0	0	0	0	0	0	0	0
502	94.5	32.72	67.5	-13.5	1.0498	500	1	135	94.5	0	0	0	0	0	0	0	0	0	0	0
601	52.5	14.74	37.5	-7.5	1.0499	500	1	75	52.5	0	0	0	0	0	0	0	0	0	0	0
601	52.5	14.74	37.5	-7.5	1.0499	500	1	75	52.5	0	0	0	0	0	0	0	0	0	0	0
1301	70	18.35	50	-10	1.048	500	1	100	70	0	0	0	0	0	0	0	0	0	0	0
1102	49	12.48	35	-7	1.0459	500	1	70	49	0	0	0	0	0	0	0	0	0	0	0
1102	49	12.48	35	-7	1.0459	500	1	70	49	0	0	0	0	0	0	0	0	0	0	0
1102	49	12.48	35	-7	1.0459	500	1	70	49	0	0	0	0	0	0	0	0	0	0	0
702	94.5	39.05	67.5	-13.5	1.0461	500	1	135	94.5	0	0	0	0	0	0	0	0	0	0	0
402	42	29.97	30	-6	1.0481	500	1	60	42	0	0	0	0	0	0	0	0	0	0	0
402	42	29.97	30	-6	1.0481	500	1	60	42	0	0	0	0	0	0	0	0	0	0	0
1102	49	12.48	35	-7	1.0459	500	1	70	49	0	0	0	0	0	0	0	0	0	0	0
1102	49	12.48	35	-7	1.0459	500	1	70	49	0	0	0	0	0	0	0	0	0	0	0
1102	49	12.48	35	-7	1.0459	500	1	70	49	0	0	0	0	0	0	0	0	0	0	0
1201	70	17.88	50	-10	1.05	500	1	100	70	0	0	0	0	0	0	0	0	0	0	0
1201	56	14.59	40	-8	1.05	500	1	80	56	0	0	0	0	0	0	0	0	0	0	0
1201	56	14.59	40	-8	1.05	500	1	80	56	0	0	0	0	0	0	0	0	0	0	0
1201	21	5.77	15	-3	1.05	500	1	30	21	0	0	0	0	0	0	0	0	0	0	0
801	21	6.96	15	-3	1.0468	500	1	30	21	0	0	0	0	0	0	0	0	0	0	0
203	21	5.78	15	-3	1.0427	500	1	30	21	0	0	0	0	0	0	0	0	0	0	0
203	21	5.78	15	-3	1.0427	500	1	30	21	0	0	0	0	0	0	0	0	0	0	0
204	21	7.2	15	-3	1.0441	500	1	30	21	0	0	0	0	0	0	0	0	0	0	0
204	28	10.06	20	-4	1.0441	500	1	40	28	0	0	0	0	0	0	0	0	0	0	0
1301	21	5.79	15	-3	1.048	500	1	30	21	0	0	0	0	0	0	0	0	0	0	0
1102	24.5	6.6	17.5	-3.5	1.0459	500	1	35	24.5	0	0	0	0	0	0	0	0	0	0	0
301	21	5.8	15	-3	1.0485	500	1	30	21	0	0	0	0	0	0	0	0	0	0	0
701	21	5.97	15	-3	1.0465	500	1	30	21	0	0	0	0	0	0	0	0	0	0	0
701	21	5.97	15	-3	1.0465	500	1	30	21	0	0	0	0	0	0	0	0	0	0	0
103	21	5.98	15	-3	1.0472	500	1	30	21	0	0	0	0	0	0	0	0	0	0	0
401	21	5.9	15	-3	1.0464	500	1	30	21	0	0	0	0	0	0	0	0	0	0	0
401	21	5.9	15	-3	1.0464	500	1	30	21	0	0	0	0	0	0	0	0	0	0	0
202	21	5.88	15	-3	1.041	500	1	30	21	0	0	0	0	0	0	0	0	0	0	0
601	28	7.87	20	-4	1.0499	500	1	40	28	0	0	0	0	0	0	0	0	0	0	0
901	21	5.9	15	-3	1.0436	500	1	30	21	0	0	0	0	0	0	0	0	0	0	0
901	21	5.9	15	-3	1.0436	500	1	30	21	0	0	0	0	0	0	0	0	0	0	0
1101	21	5.93	15	-3	1.05	500	1	30	21	0	0	0	0	0	0	0	0	0	0	0
1401	28	8	20	-4	1.0461	500	1	40	28	0	0	0	0	0	0	0	0	0	0	0
801	8.4	2.54	6	-1.2	1.0468	500	1	12	8.4	0	0	0	0	0	0	0	0	0	0	0
801	8.4	2.54	6	-1.2	1.0468	500	1	12	8.4	0	0	0	0	0	0	0	0	0	0	0
202	8.4	2.38	6	-1.2	1.041	500	1	12	8.4	0	0	0	0	0	0	0	0	0	0	0
1404	6.3	1.75	4.5	-0.9	1.05	500	1	9	6.3	0	0	0	0	0	0	0	0	0	0	0
502	6.3	1.8	4.5	-0.9	1.0498	500	1	9	6.3	0	0	0	0	0	0	0	0	0	0	0
502	8.4	2.41	6	-1.2	1.0498	500	1	12	8.4	0	0	0	0	0	0	0	0	0	0	0
1302	10.5	2.97	7.5	-1.5	1.05	500	1	15	10.5	0	0	0	0	0	0	0	0	0	0	0
408	17.5	4.69	12.5	-2.5	1.0462	500	1	25	17.5	0	0	0	0	0	0	0	0	0	0	0
104	10.5	2.94	7.5	-1.5	1.0447	500	1	15	10.5	0	0	0	0	0	0	0	0	0	0	0
703	6.3	1.77	4.5	-0.9	1.0472	500	1	9	6.3	0	0	0	0	0	0	0	0	0	0	0
601	4.2	1.2	3	-0.6	1.0499	500	1	6	4.2	0	0	0	0	0	0	0	0	0	0	0
601	8.4	2.38	6	-1.2	1.0499	500	1	12	8.4	0	0	0	0	0	0	0	0	0	0	0
801	10.5	3.23	7.5	-1.5	1.0468	500	1	15	10.5	0	0	0	0	0	0	0	0	0	0	0
801	10.5	3.23	7.5	-1.5	1.0468	500	1	15	10.5	0	0	0	0	0	0	0	0	0	0	0
104	1.02	0.18	0.63	-0.126	1.0447	500	1	1.26	0	0	0	0	0	0	0	0	0	0	0	0
104	1.57	0.28	1.6	-0.32	1.0447	500	1	3.2	0	0	0	0	0	0	0	0	0	0	0	0
1402	0.81	0.15	0.5	-0.1	1.0482	500	1	1	0	0	0	0	0	0	0	0	0	0	0	0
1105	1.34	0.25	0.83	-0.166	1.0442	500	1	1.66	0	0	0	0	0	0	0	0	0	0	0	0
104	2.04	0.37	1.26	-0.252	1.0447	500	1	2.52	0	0	0	0	0	0	0	0	0	0	0	0
1102	1.28	0.23	0.79	-0.158	1.0459	500	1	1.58	0	0	0	0	0	0	0	0	0	0	0	0
1105	1.53	0.28	0.945	-0.189	1.0442	500	1	1.89	0	0	0	0	0	0	0	0	0	0	0	0
1103	1.53	0.28	0.945	-0.189	1.0447	500	1	1.89	0	0	0	0	0	0	0	0	0	0	0	0
1104	2.59	0.43	1.6	-0.32	1.05	500	1	3.2	0	0	0	0	0	0	0	0	0	0	0	0
705	1.53	0.28	0.945	-0.189	1.0473	500	1	1.89	0	0	0	0	0	0	0	0	0	0	0	0
1401	6.48	1.16	4	-0.8	1.0461	500	1	8	0	0	0	0	0	0	0	0	0	0	0	0
1402	0.81	0.15	0.5	-0.1	1.0482	500	1	1	0	0	0	0	0	0	0	0	0	0	0	0
104	2.13	0.38	1.315	-0.263	1.0447	500	1	2.63	0	0	0	0	0	0	0	0	0	0	0	0
101	0.81	0.15	0.5	-0.1	1.0445	500	1	1	0	0	0	0	0	0	0	0	0	0	0	0
104	7.29	1.28	4.5	-0.9	1.0447	500	1	9	0	0	0	0	0	0	0	0	0	0	0	0
903	1.32	0.24	0.815	-0.163	1.0483	500	1	1.63	0	0	0	0	0	0	0	0	0	0	0	0
108	3.04	0.54	1.875	-0.375	1.042	500	1	3.75	0	0	0	0	0	0	0	0	0	0	0	0
104	3.24	0.58	2	-0.4	1.0447	500	1	4	0	0	0	0	0	0	0	0	0	0	0	0
1002	3.89	0.68	2.4	-0.48	1.0493	500	1	4.8	0	0	0	0	0	0	0	0	0	0	0	0
1402	0.83	0.15	0.515	-0.103	1.0482	500	1	1.03	0	0	0	0	0	0	0	0	0	0	0	0
104	2.02	0.36	1.25	-0.25	1.0447	500	1	2.5	0	0	0	0	0	0	0	0	0	0	0	0
105	17.01	2.99	10.5	-2.1	1.0442	500	1	21	0	0	0	0	0	0	0	0	0	0	0	0
501	1.42	0.26	0.875	-0.175	1.05	500	1	1.75	0	0	0	0	0	0	0	0	0	0	0	0
501	3.89	0.7	2.4	-0.48	1.05	500	1	4.8	0	0	0	0	0	0	0	0	0	0	0	0
1404	155.52	11.75	96	-19.2	1.05	500	1	192	0	0	0	0	0	0	0	0	0	0	0	0
1103	1.02	0.19	0.63	-0.126	1.0447	500	1	1.26	0	0	0	0	0	0	0	0	0	0	0	0
101	392.26	60.19	270	-54	1.0445	500	1	540	0	0	0	0	0	0	0	0	0	0	0	0
101	51.43	8.89	33	-6.6	1.0445	500	1	66	0	0	0	0	0	0	0	0	0	0	0	0
101	6.14	1.09	12	-2.4	1.0445	500	1	24	0	0	0	0	0	0	0	0	0	0	0	0
105	17.01	2.99	10.5	-2.1	1.0442	500	1	21	0	0	0	0	0	0	0	0	0	0	0	0
104	4.05	0.72	2.5	-0.5	1.0447	500	1	5	0	0	0	0	0	0	0	0	0	0	0	0
104	4.25	0.75	2.625	-0.525	1.0447	500	1	5.25	0	0	0	0	0	0	0	0	0	0	0	0
602	0.81	0.15	0.5	-0.1	1.0437	500	1	1	0	0	0	0	0	0	0	0	0	0	0	0
501	2.02	0.37	1.25	-0.25	1.05	500	1	2.5	0	0	0	0	0	0	0	0	0	0	0	0
1106	2.59	0.46	1.6	-0.32	1.0445	500	1	3.2	0	0	0	0	0	0	0	0	0	0	0	0
1104	1.02	0.18	0.63	-0.126	1.05	500	1	1.26	0	0	0	0	0	0	0	0	0	0	0	0
501	1.05	0.19	0.65	-0.13	1.05	500	1	1.3	0	0	0	0	0	0	0	0	0	0	0	0
1108	1.62	0.29	1	-0.2	1.0446	500	1	2	0	0	0	0	0	0	0	0	0	0	0	0
1001	1.53	0.28	0.945	-0.189	1.05	500	1	1.89	0	0	0	0	0	0	0	0	0	0	0	0
108	6.48	1.14	4	-0.8	1.042	500	1	8	0	0	0	0	0	0	0	0	0	0	0	0
1101	1.67	0.3	1.03	-0.206	1.05	500	1	2.06	0	0	0	0	0	0	0	0	0	0	0	0
1101	72.9	12.83	45	-9	1.05	500	1	90	0	0	0	0	0	0	0	0	0	0	0	0
1101	1.02	0.19	0.63	-0.126	1.05	500	1	1.26	0	0	0	0	0	0	0	0	0	0	0	0
1106	0.81	0.15	0.5	-0.1	1.0445	500	1	1	0	0	0	0	0	0	0	0	0	0	0	0
105	24.3	4.26	15	-3	1.0442	500	1	30	0	0	0	0	0	0	0	0	0	0	0	0
1105	0.53	0.1	0.325	-0.065	1.0442	500	1	0.65	0	0	0	0	0	0	0	0	0	0	0	0
105	1.02	0.18	0.63	-0.126	1.0442	500	1	1.26	0	0	0	0	0	0	0	0	0	0	0	0
501	1.21	0.22	0.75	-0.15	1.05	500	1	1.5	0	0	0	0	0	0	0	0	0	0	0	0
1101	7.21	1.29	4.45	-0.89	1.05	500	1	8.9	0	0	0	0	0	0	0	0	0	0	0	0
1102	2.11	0.38	1.3	-0.26	1.0459	500	1	2.6	0	0	0	0	0	0	0	0	0	0	0	0
1106	0.97	0.18	0.6	-0.12	1.0445	500	1	1.2	0	0	0	0	0	0	0	0	0	0	0	0
501	2.02	0.37	1.25	-0.25	1.05	500	1	2.5	0	0	0	0	0	0	0	0	0	0	0	0
1102	0.97	0.18	0.6	-0.12	1.0459	500	1	1.2	0	0	0	0	0	0	0	0	0	0	0	0
1108	1.53	0.28	0.945	-0.189	1.0446	500	1	1.89	0	0	0	0	0	0	0	0	0	0	0	0
1105	1.03	0.19	0.635	-0.127	1.0442	500	1	1.27	0	0	0	0	0	0	0	0	0	0	0	0
1105	1.02	0.19	0.63	-0.126	1.0442	500	1	1.26	0	0	0	0	0	0	0	0	0	0	0	0
1105	1.02	0.19	0.63	-0.126	1.0442	500	1	1.26	0	0	0	0	0	0	0	0	0	0	0	0
104	1.3	0.23	0.8	-0.16	1.0447	500	1	1.6	0	0	0	0	0	0	0	0	0	0	0	0
1401	1.2	0.22	0.74	-0.148	1.0461	500	1	1.48	0	0	0	0	0	0	0	0	0	0	0	0
1401	30.5	5.49	18.83	-3.766	1.0461	500	1	37.66	0	0	0	0	0	0	0	0	0	0	0	0
1108	1.34	0.24	0.83	-0.166	1.0446	500	1	1.66	0	0	0	0	0	0	0	0	0	0	0	0
105	4.05	0.72	2.5	-0.5	1.0442	500	1	5	0	0	0	0	0	0	0	0	0	0	0	0
105	7.29	1.29	4.5	-0.9	1.0442	500	1	9	0	0	0	0	0	0	0	0	0	0	0	0
1404	1.94	0.35	1.2	-0.24	1.05	500	1	2.4	0	0	0	0	0	0	0	0	0	0	0	0
1103	1.53	0.28	0.945	-0.189	1.0447	500	1	1.89	0	0	0	0	0	0	0	0	0	0	0	0
408	0.57	0.1	0.35	-0.07	1.0462	500	1	0.7	0	0	0	0	0	0	0	0	0	0	0	0
1104	0.97	0.17	0.6	-0.12	1.05	500	1	1.2	0	0	0	0	0	0	0	0	0	0	0	0
1401	1.94	0.35	1.2	-0.24	1.0461	500	1	2.4	0	0	0	0	0	0	0	0	0	0	0	0
...
    ];

%% branch data
mpc.branch = [
101	102	0.00486	0.0504	0.0023	3500	0	0	0	0	1	-360	360
102	103	0.00108	0.0112	0.00051	1500	0	0	0	0	1	-360	360
101	104	0.0054	0.056	0.00256	2500	0	0	0	0	1	-360	360
104	201	0.00567	0.0588	0.00269	4000	0	0	0	0	1	-360	360
102	402	0.00756	0.0784	0.00358	3000	0	0	0	0	1	-360	360
103	402	0.00702	0.0728	0.00333	1500	0	0	0	0	1	-360	360
103	401	0.00594	0.0616	0.00282	1500	0	0	0	0	1	-360	360
103	201	0.04132	0.30992	0.0124	1500	0	0	0	0	1	-360	360
201	402	0.0081	0.084	0.00384	1500	0	0	0	0	1	-360	360
105	101	0.0054	0.056	0.00256	3000	0	0	0	0	1	-360	360
105	103	0.01134	0.1176	0.00538	3000	0	0	0	0	1	-360	360
401	403	0.00297	0.0308	0.00141	1500	0	0	0	0	1	-360	360
402	403	0.00378	0.0392	0.00179	3000	0	0	0	0	1	-360	360
402	404	0.00243	0.0252	0.00115	1500	0	0	0	0	1	-360	360
403	404	0.00324	0.0336	0.00154	1500	0	0	0	0	1	-360	360
402	501	0.00918	0.0952	0.00435	1500	0	0	0	0	1	-360	360
403	501	0.0108	0.112	0.00512	1500	0	0	0	0	1	-360	360
404	501	0.0081	0.084	0.00384	1500	0	0	0	0	1	-360	360
502	501	0.00108	0.0112	0.00051	3000	0	0	0	0	1	-360	360
501	601	0.0027	0.028	0.00128	1500	0	0	0	0	1	-360	360
601	1201	0.00675	0.07	0.0032	1500	0	0	0	0	1	-360	360
601	802	0.01242	0.1288	0.00589	1500	0	0	0	0	1	-360	360
1201	802	0.00972	0.1008	0.00461	1500	0	0	0	0	1	-360	360
402	801	0.01188	0.1232	0.00563	3000	0	0	0	0	1	-360	360
801	802	0.0027	0.028	0.00128	3000	0	0	0	0	1	-360	360
801	1301	0.00405	0.042	0.00192	1500	0	0	0	0	1	-360	360
302	301	0.00216	0.0224	0.00102	3000	0	0	0	0	1	-360	360
103	301	0.0108	0.112	0.00512	3000	0	0	0	0	1	-360	360
301	1301	0.00756	0.0784	0.00358	1500	0	0	0	0	1	-360	360
301	901	0.01728	0.1792	0.00819	3000	0	0	0	0	1	-360	360
1402	1401	0.00648	0.0672	0.00307	1500	0	0	0	0	1	-360	360
1401	702	0.00756	0.0784	0.00358	1500	0	0	0	0	1	-360	360
703	704	0.00081	0.0084	0.00038	3000	0	0	0	0	1	-360	360
703	701	0.00324	0.0336	0.00154	1500	0	0	0	0	1	-360	360
701	301	0.00405	0.042	0.00192	1500	0	0	0	0	1	-360	360
701	702	0.00351	0.0364	0.00166	1500	0	0	0	0	1	-360	360
702	703	0.00216	0.0224	0.00102	3000	0	0	0	0	1	-360	360
703	1101	0.00594	0.0616	0.00282	3000	0	0	0	0	1	-360	360
1101	1001	0.0054	0.056	0.00256	3000	0	0	0	0	1	-360	360
704	1102	0.00567	0.0588	0.00269	3000	0	0	0	0	1	-360	360
1102	1103	0.0027	0.028	0.00128	3000	0	0	0	0	1	-360	360
1501	702	0.01944	0.2016	0.00922	3000	0	0	0	0	1	-360	360
1501	1402	0.00356	0.03696	0.00169	1500	0	0	0	0	1	-360	360
1501	103	0.0135	0.14	0.0064	1500	0	0	0	0	1	-360	360
1502	103	0.00486	0.0504	0.0023	1500	0	0	0	0	1	-360	360
1502	702	0.01188	0.1232	0.00563	1500	0	0	0	0	1	-360	360
1503	501	0.00135	0.014	0.00064	4500	0	0	0	0	1	-360	360
1503	402	0.0081	0.084	0.00384	4500	0	0	0	0	1	-360	360
1504	501	0.00189	0.0196	0.0009	3000	0	0	0	0	1	-360	360
1504	502	0.00054	0.0056	0.00026	3000	0	0	0	0	1	-360	360
1505	601	0.00216	0.0224	0.00102	3000	0	0	0	0	1	-360	360
1505	601	0.00216	0.0224	0.00102	1500	0	0	0	0	1	-360	360
105	106	0.03926	0.29442	0.01178	1000	0	0	1	0	1	-360	360
105	107	0.04132	0.30992	0.0124	1000	0	0	1	0	1	-360	360
105	108	0.02686	0.20145	0.00806	1000	0	0	1	0	1	-360	360
105	109	0.0124	0.09298	0.00372	1000	0	0	1	0	1	-360	360
201	203	0.03719	0.27893	0.01116	1000	0	0	1	0	1	-360	360
203	204	0.02479	0.18595	0.00744	1000	0	0	0	0	1	-360	360
203	202	0.02066	0.15496	0.0062	1000	0	0	0	0	1	-360	360
402	204	0.01653	0.12397	0.00496	1000	0	0	1	0	1	-360	360
701	303	0.02066	0.15496	0.0062	1000	0	0	1	0	1	-360	360
301	304	0.02479	0.18595	0.00744	1000	0	0	1	0	1	-360	360
304	303	0.0186	0.13946	0.00558	1000	0	0	0	0	1	-360	360
403	405	0.03512	0.26343	0.01054	1000	0	0	1	0	1	-360	360
403	407	0.03719	0.27893	0.01116	1000	0	0	1	0	1	-360	360
401	407	0.02479	0.18595	0.00744	1000	0	0	1	0	1	-360	360
402	408	0.04132	0.30992	0.0124	1000	0	0	1	0	1	-360	360
404	408	0.02686	0.20145	0.00806	1000	0	0	1	0	1	-360	360
601	602	0.03099	0.23244	0.0093	1500	0	0	1	0	1	-360	360
703	705	0.03719	0.27893	0.01116	1000	0	0	1	0	1	-360	360
705	706	0.02479	0.18595	0.00744	1000	0	0	0	0	1	-360	360
801	803	0.02273	0.17045	0.00682	1000	0	0	1	0	1	-360	360
801	804	0.02066	0.15496	0.0062	1000	0	0	1	0	1	-360	360
802	804	0.01446	0.10847	0.00434	1000	0	0	1	0	1	-360	360
803	804	0.03306	0.24793	0.00992	1000	0	0	0	0	1	-360	360
901	902	0.02479	0.18595	0.00744	1000	0	0	1	0	1	-360	360
901	904	0.03099	0.23244	0.0093	1000	0	0	1	0	1	-360	360
1101	903	0.02479	0.18595	0.00744	1000	0	0	1	0	1	-360	360
1001	1002	0.04132	0.30992	0.0124	1000	0	0	1	0	1	-360	360
1103	1104	0.03719	0.27893	0.01116	1000	0	0	1	0	1	-360	360
1103	1105	0.0124	0.09298	0.00372	1000	0	0	1	0	1	-360	360
1103	1105	0.0124	0.09298	0.00372	1000	0	0	1	0	1	-360	360
1105	1108	0.02066	0.15496	0.0062	1000	0	0	0	0	1	-360	360
1105	1107	0.02479	0.18595	0.00744	1000	0	0	0	0	1	-360	360
1107	1106	0.01446	0.10847	0.00434	1000	0	0	0	0	1	-360	360
1301	1302	0.02066	0.15496	0.0062	1000	0	0	1	0	1	-360	360
301	1302	0.05165	0.3874	0.0155	1000	0	0	1	0	1	-360	360
1301	1303	0.03388	0.25413	0.01017	1000	0	0	1	0	1	-360	360
1302	1303	0.02479	0.18595	0.00744	1000	0	0	0	0	1	-360	360
901	1303	0.05372	0.40289	0.01612	1000	0	0	1	0	1	-360	360
1301	405	0.04545	0.34091	0.01364	1000	0	0	1	0	1	-360	360
1102	706	0.04132	0.30992	0.0124	1000	0	0	1	0	1	-360	360
101	1403	0.02479	0.18595	0.00744	1000	0	0	1	0	1	-360	360
302	406	0.02479	0.18595	0.00744	1000	0	0	1	0	1	-360	360
301	406	0.02479	0.18595	0.00744	1000	0	0	1	0	1	-360	360
405	406	0.01033	0.07748	0.0031	1000	0	0	0	0	1	-360	360
1001	904	0.03306	0.24793	0.00992	1000	0	0	1	0	1	-360	360
106	107	0.02479	0.18595	0.00744	1000	0	0	0	0	1	-360	360
108	109	0.03595	0.26963	0.01079	1000	0	0	0	0	1	-360	360
201	202	0.05248	0.3936	0.01574	1000	0	0	1	0	1	-360	360
1403	109	0.04008	0.30062	0.01202	1000	0	0	0	0	1	-360	360
1404	407	0.04545	0.34091	0.01364	1000	0	0	0	0	1	-360	360
602	408	0.02686	0.20145	0.00806	1000	0	0	0	0	1	-360	360
706	1104	0.0281	0.21074	0.00843	1000	0	0	0	0	1	-360	360
1108	1106	0.0314	0.23554	0.00942	1000	0	0	0	0	1	-360	360
703	903	0.05702	0.42769	0.01711	1000	0	0	1	0	1	-360	360
1002	904	0.04711	0.35331	0.01413	1000	0	0	0	0	1	-360	360
902	1303	0.05124	0.3843	0.01537	1000	0	0	0	0	1	-360	360
401	1404	0.05785	0.43388	0.01736	1000	0	0	1	0	1	-360	360
302	1404	0.05165	0.3874	0.0155	1000	0	0	1	0	1	-360	360
    ];

%%-----  OPF Data  -----%%
%% generator cost data
mpc.gencost = [
2	26665.7	26665.7	3	0.0054	35.5	1797
2	26665.7	26665.7	3	0.0054	35.5	1797
2	8007.4	8007.4	3	0.0049	32.5	1643.1
2	8007.4	8007.4	3	0.0049	32.5	1643.1
2	8897.2	8897.2	3	0.0049	32.5	1643.1
2	8897.2	8897.2	3	0.0049	32.5	1643.1
2	19864.3	19864.3	3	0.0027	32.1	2668.4
2	19864.3	19864.3	3	0.0027	32.1	2668.4
2	6621.4	6621.4	3	0.0049	32.5	1643.1
2	6621.4	6621.4	3	0.0049	32.5	1643.1
2	4092.3	4092.3	3	0.0049	32.5	1643.1
2	4092.3	4092.3	3	0.0049	32.5	1643.1
2	99321.4	99321.4	3	0.0007	32.3	3275.4
2	99321.4	99321.4	3	0.0007	32.3	3275.4
2	26665.7	26665.7	3	0.0054	35.5	1797
2	26665.7	26665.7	3	0.0054	35.5	1797
2	92700	92700	3	0.0028	33.1	2751.6
2	95348.6	95348.6	3	0.0028	33.1	2751.6
2	70054.7	70054.7	3	0.0027	32.1	2668.4
2	83959.7	83959.7	3	0.0027	32.1	2668.4
2	26665.7	26665.7	3	0.0054	35.5	1797
2	26665.7	26665.7	3	0.0054	35.5	1797
2	26665.7	26665.7	3	0.0054	35.5	1797
2	26665.7	26665.7	3	0.0054	35.5	1797
2	26665.7	26665.7	3	0.0054	35.5	1797
2	2965.7	2965.7	3	0.0049	32.5	1643.1
2	2965.7	2965.7	3	0.0049	32.5	1643.1
2	2965.7	2965.7	3	0.0049	32.5	1643.1
2	17777.1	17777.1	3	0.0054	35.5	1797
2	17777.1	17777.1	3	0.0054	35.5	1797
2	31411.4	31411.4	3	0.0027	32.1	2668.4
2	31411.4	31411.4	3	0.0027	32.1	2668.4
2	51900	51900	3	0.0049	32.5	1643.1
2	73214.3	73214.3	3	0.0027	32.1	2668.4
2	51900	51900	3	0.0049	32.5	1643.1
2	115885.7	115885.7	3	0.0007	32.3	3275.4
2	115885.7	115885.7	3	0.0007	32.3	3275.4
2	8897.2	8897.2	3	0.0049	32.5	1643.1
2	8897.2	8897.2	3	0.0049	32.5	1643.1
2	26665.7	26665.7	3	0.0054	35.5	1797
2	9193.7	9193.7	3	0.0049	32.5	1643.1
2	9193.7	9193.7	3	0.0049	32.5	1643.1
2	9193.7	9193.7	3	0.0049	32.5	1643.1
2	17794.3	17794.3	3	0.0049	32.5	1643.1
2	17794.3	17794.3	3	0.0049	32.5	1643.1
2	23725.7	23725.7	3	0.0049	32.5	1643.1
2	23725.7	23725.7	3	0.0049	32.5	1643.1
2	2372.6	2372.6	3	0.0049	32.5	1643.1
2	2965.7	2965.7	3	0.0049	32.5	1643.1
2	43885.7	43885.7	3	0.0027	32.1	2668.4
2	43885.7	43885.7	3	0.0027	32.1	2668.4
2	1779.4	1779.4	3	0.0049	32.5	1643.1
2	1779.4	1779.4	3	0.0049	32.5	1643.1
2	1779.4	1779.4	3	0.0049	32.5	1643.1
2	95348.6	95348.6	3	0.0007	32.3	3275.4
2	95348.6	95348.6	3	0.0007	32.3	3275.4
2	34431.4	34431.4	3	0.0027	32.1	2668.4
2	34431.4	34431.4	3	0.0027	32.1	2668.4
2	30458.6	30458.6	3	0.0028	33.1	2751.6
2	30458.6	30458.6	3	0.0028	33.1	2751.6
2	8897.2	8897.2	3	0.0049	32.5	1643.1
2	8897.2	8897.2	3	0.0049	32.5	1643.1
2	4745.2	4745.2	3	0.0049	32.5	1643.1
2	8007.4	8007.4	3	0.0049	32.5	1643.1
2	8007.4	8007.4	3	0.0049	32.5	1643.1
2	14785.7	14785.7	3	0.0049	32.5	1643.1
2	14785.7	14785.7	3	0.0049	32.5	1643.1
2	1779.4	1779.4	3	0.0049	32.5	1643.1
2	1779.4	1779.4	3	0.0049	32.5	1643.1
2	1945.5	1945.5	3	0.0049	32.5	1643.1
2	1779.4	1779.4	3	0.0049	32.5	1643.1
2	0	0	3	0	107.1	0
2	0	0	3	0	107.1	0
2	0	0	3	0	107.1	0
2	0	0	3	0	107.1	0
2	0	0	3	0	107.1	0
2	0	0	3	0	107.1	0
2	0	0	3	0	107.1	0
2	0	0	3	0	107.1	0
2	0	0	3	0	107.1	0
2	0	0	3	0	107.1	0
2	0	0	3	0	107.1	0
2	0	0	3	0	107.1	0
2	0	0	3	0	107.1	0
2	0	0	3	0	107.1	0
2	0	0	3	0	107.1	0
2	0	0	3	0	107.1	0
2	0	0	3	0	107.1	0
2	0	0	3	0	107.1	0
2	0	0	3	0	107.1	0
2	0	0	3	0	107.1	0
2	0	0	3	0	107.1	0
2	0	0	3	0	107.1	0
2	0	0	3	0	107.1	0
2	0	0	3	0	107.1	0
2	0	0	3	0	107.1	0
2	0	0	3	0	107.1	0
2	0	0	3	0	107.1	0
2	0	0	3	0	107.1	0
2	0	0	3	0	107.1	0
2	0	0	3	0	107.1	0
2	0	0	3	0	107.1	0
2	0	0	3	0	107.1	0
2	0	0	3	0	107.1	0
2	0	0	3	0	107.1	0
2	0	0	3	0	107.1	0
2	0	0	3	0	107.1	0
2	0	0	3	0	107.1	0
2	0	0	3	0	107.1	0
2	0	0	3	0	107.1	0
2	0	0	3	0	107.1	0
2	0	0	3	0	107.1	0
2	0	0	3	0	107.1	0
2	0	0	3	0	107.1	0
2	0	0	3	0	107.1	0
2	0	0	3	0	107.1	0
2	0	0	3	0	107.1	0
2	0	0	3	0	107.1	0
2	0	0	3	0	107.1	0
2	0	0	3	0	107.1	0
2	0	0	3	0	107.1	0
2	0	0	3	0	107.1	0
2	0	0	3	0	107.1	0
2	0	0	3	0	107.1	0
2	0	0	3	0	107.1	0
2	0	0	3	0	107.1	0
2	0	0	3	0	107.1	0
2	0	0	3	0	107.1	0
2	0	0	3	0	107.1	0
2	0	0	3	0	107.1	0
2	0	0	3	0	107.1	0
2	0	0	3	0	107.1	0
2	0	0	3	0	0	0
2	0	0	3	0	0	0
2	0	0	3	0	0	0
2	0	0	3	0	0	0
2	0	0	3	0	0	0
2	0	0	3	0	0	0
2	0	0	3	0	0	0
2	0	0	3	0	0	0
2	0	0	3	0	0	0
2	0	0	3	0	0	0
2	0	0	3	0	0	0
2	0	0	3	0	0	0
2	0	0	3	0	0	0
2	0	0	3	0	0	0
2	0	0	3	0	0	0
2	0	0	3	0	0	0
2	0	0	3	0	0	0
2	0	0	3	0	0	0
2	0	0	3	0	0	0
2	0	0	3	0	0	0
2	0	0	3	0	0	0
2	0	0	3	0	0	0
2	0	0	3	0	0	0
2	0	0	3	0	0	0
2	0	0	3	0	0	0
2	0	0	3	0	0	0
2	0	0	3	0	0	0
2	0	0	3	0	0	0
2	0	0	3	0	0	0
2	0	0	3	0	0	0
2	0	0	3	0	0	0
2	0	0	3	0	0	0
2	0	0	3	0	0	0
2	0	0	3	0	0	0
2	0	0	3	0	0	0
2	0	0	3	0	0	0
2	0	0	3	0	0	0
2	0	0	3	0	0	0
2	0	0	3	0	0	0
2	0	0	3	0	0	0
2	0	0	3	0	0	0
2	0	0	3	0	0	0
2	0	0	3	0	0	0
2	0	0	3	0	0	0
2	0	0	3	0	0	0
2	0	0	3	0	0	0
2	0	0	3	0	0	0
2	0	0	3	0	0	0
2	0	0	3	0	0	0
2	0	0	3	0	0	0
2	0	0	3	0	0	0
2	0	0	3	0	0	0
2	0	0	3	0	0	0
2	0	0	3	0	0	0
2	0	0	3	0	0	0
2	0	0	3	0	0	0
2	0	0	3	0	0	0
2	0	0	3	0	0	0
2	0	0	3	0	0	0
2	0	0	3	0	0	0
2	0	0	3	0	0	0
2	0	0	3	0	0	0
2	0	0	3	0	0	0
2	0	0	3	0	0	0
2	0	0	3	0	0	0
2	0	0	3	0	0	0
2	0	0	3	0	0	0
2	0	0	3	0	0	0
...
    ];

%%-----  DC Line Data  -----%%
%	fbus	tbus	status	Pf	Pt	Qf	Qt	Vf	Vt	Pmin	Pmax	QminF	QmaxF	QminT	QmaxT	loss0	loss1
mpc.dcline = [
	1502 704	1	0	0	0	0	1	1	0	8000	-Inf	Inf	-Inf	Inf	0	0
    105 701	1	0	0	0	0	1	1	0	3200	-Inf	Inf	-Inf	Inf	0	0
];